Version 4
SHEET 1 880 680
WIRE 224 112 224 -32
WIRE 224 352 224 176
SYMBOL Misc\\xtal 208 112 R0
SYMATTR InstName X1
SYMATTR Value PS1720P02
SYMATTR Prefix X
TEXT -336 216 Left 2 !.include PS1720p02.sub
