Version 4
SHEET 1 1956 680
WIRE 96 -208 16 -208
WIRE 256 -208 176 -208
WIRE 928 -96 480 -96
WIRE 928 -64 928 -96
WIRE 16 -48 16 -208
WIRE 112 -48 16 -48
WIRE 256 -48 256 -208
WIRE 256 -48 176 -48
WIRE 400 -48 336 -48
WIRE 416 -48 400 -48
WIRE 16 16 16 -48
WIRE 688 16 624 16
WIRE 800 16 768 16
WIRE 480 48 480 0
WIRE 16 112 16 80
WIRE 112 112 112 -32
WIRE 400 112 400 -48
WIRE 624 112 624 16
WIRE 624 112 400 112
WIRE 688 112 624 112
WIRE 800 112 800 16
WIRE 800 112 752 112
WIRE 928 112 928 0
WIRE 928 112 800 112
WIRE 624 144 624 112
WIRE 688 208 688 128
FLAG 16 112 0
FLAG 112 112 0
FLAG 624 208 0
FLAG 688 208 0
FLAG 480 48 0
SYMBOL cap 0 16 R0
SYMATTR InstName C1
SYMATTR Value 100µF
SYMBOL Digital\\schmtinv 112 -112 R0
SYMATTR InstName A1
SYMBOL res 192 -224 R90
WINDOW 0 0 56 VBottom 2
WINDOW 3 32 56 VTop 2
SYMATTR InstName R1
SYMATTR Value 20k
SYMBOL cap 608 144 R0
SYMATTR InstName C3
SYMATTR Value 100nF
SYMBOL res 784 0 R90
WINDOW 0 -11 65 VBottom 2
WINDOW 3 32 56 VTop 2
SYMATTR InstName R3
SYMATTR Value 2.2k
SYMBOL Digital\\schmtinv 688 48 R0
SYMATTR InstName A3
SYMBOL Misc\\xtal 912 -64 R0
SYMATTR InstName X1
SYMATTR Value PS1720P02
SYMATTR Prefix X
SYMBOL res 352 -64 R90
WINDOW 0 0 56 VBottom 2
WINDOW 3 32 56 VTop 2
SYMATTR InstName R2
SYMATTR Value 10k
SYMBOL npn 416 -96 R0
SYMATTR InstName Q1
TEXT 984 -80 Left 2 !.lib C:\\Users\\matta\\OneDrive\\Uni\\QUT\\Y3S1\\EGB240\\TwoToneBuzzer\\buzzer.asc
TEXT 0 136 Left 2 !.tran 0 3 1 uic
TEXT 984 8 Left 2 !.include PS1720p02.sub
