Version 4
SHEET 1 1956 680
WIRE 688 -320 624 -320
WIRE 800 -320 768 -320
WIRE 464 -224 432 -224
WIRE 624 -224 624 -320
WIRE 624 -224 528 -224
WIRE 704 -224 624 -224
WIRE 800 -224 800 -320
WIRE 800 -224 768 -224
WIRE 928 -224 800 -224
WIRE 1088 -224 992 -224
WIRE 624 -192 624 -224
WIRE 1088 -192 1088 -224
WIRE 704 -128 704 -208
WIRE 928 -128 928 -208
WIRE 176 -48 96 -48
WIRE 336 -48 256 -48
WIRE 96 112 96 -48
WIRE 192 112 96 112
WIRE 336 112 336 -48
WIRE 336 112 256 112
WIRE 432 112 432 -224
WIRE 432 112 336 112
WIRE 96 176 96 112
WIRE 96 272 96 240
WIRE 192 272 192 128
FLAG 96 272 0
FLAG 192 272 0
FLAG 624 -128 0
FLAG 704 -128 0
FLAG 928 -128 0
FLAG 1088 -128 0
SYMBOL cap 80 176 R0
SYMATTR InstName C1
SYMATTR Value 100µF
SYMBOL Digital\\schmtinv 192 48 R0
SYMATTR InstName A1
SYMBOL res 272 -64 R90
WINDOW 0 0 56 VBottom 2
WINDOW 3 32 56 VTop 2
SYMATTR InstName R1
SYMATTR Value 20k
SYMBOL diode 528 -240 R90
WINDOW 0 0 32 VBottom 2
WINDOW 3 32 32 VTop 2
SYMATTR InstName D1
SYMATTR Value 1N4148
SYMBOL cap 608 -192 R0
SYMATTR InstName C2
SYMATTR Value 100nF
SYMBOL res 784 -336 R90
WINDOW 0 0 56 VBottom 2
WINDOW 3 32 56 VTop 2
SYMATTR InstName R2
SYMATTR Value 4k
SYMBOL Digital\\schmtinv 704 -288 R0
SYMATTR InstName A2
SYMBOL Misc\\xtal 1072 -192 R0
SYMATTR InstName X1
SYMATTR Value PS1720P02
SYMATTR Prefix X
SYMBOL Digital\\schmtinv 928 -288 R0
SYMATTR InstName A4
TEXT 512 -24 Left 2 !.lib C:\\Users\\matta\\OneDrive\\Uni\\QUT\\Y3S1\\EGB240\\TwoToneBuzzer\\buzzer.asc
TEXT 544 48 Left 2 !.tran 0 3 1 uic
TEXT 984 8 Left 2 !.include PS1720p02.sub
