Version 4
SHEET 1 1956 680
WIRE 688 -320 624 -320
WIRE 800 -320 768 -320
WIRE 464 -224 432 -224
WIRE 624 -224 624 -320
WIRE 624 -224 528 -224
WIRE 704 -224 624 -224
WIRE 800 -224 800 -320
WIRE 800 -224 768 -224
WIRE 928 -224 800 -224
WIRE 624 -192 624 -224
WIRE 704 -128 704 -208
WIRE 928 -112 928 -224
WIRE 176 -48 96 -48
WIRE 336 -48 256 -48
WIRE 688 16 624 16
WIRE 800 16 768 16
WIRE 96 112 96 -48
WIRE 192 112 96 112
WIRE 336 112 336 -48
WIRE 336 112 256 112
WIRE 432 112 432 -224
WIRE 432 112 336 112
WIRE 464 112 432 112
WIRE 624 112 624 16
WIRE 624 112 528 112
WIRE 688 112 624 112
WIRE 800 112 800 16
WIRE 800 112 752 112
WIRE 928 112 928 -48
WIRE 928 112 800 112
WIRE 624 144 624 112
WIRE 96 176 96 112
WIRE 688 208 688 128
WIRE 96 272 96 240
WIRE 192 272 192 128
FLAG 96 272 0
FLAG 192 272 0
FLAG 624 -128 0
FLAG 704 -128 0
FLAG 624 208 0
FLAG 688 208 0
SYMBOL cap 80 176 R0
SYMATTR InstName C1
SYMATTR Value 100µF
SYMBOL Digital\\schmtinv 192 48 R0
SYMATTR InstName A1
SYMBOL res 272 -64 R90
WINDOW 0 0 56 VBottom 2
WINDOW 3 32 56 VTop 2
SYMATTR InstName R1
SYMATTR Value 20k
SYMBOL diode 528 -240 R90
WINDOW 0 0 32 VBottom 2
WINDOW 3 32 32 VTop 2
SYMATTR InstName D1
SYMATTR Value 1N4148
SYMBOL cap 608 -192 R0
SYMATTR InstName C2
SYMATTR Value 100nF
SYMBOL res 784 -336 R90
WINDOW 0 0 56 VBottom 2
WINDOW 3 32 56 VTop 2
SYMATTR InstName R2
SYMATTR Value 4k
SYMBOL Digital\\schmtinv 704 -288 R0
SYMATTR InstName A2
SYMBOL diode 464 128 R270
WINDOW 0 32 32 VTop 2
WINDOW 3 0 32 VBottom 2
SYMATTR InstName D2
SYMATTR Value 1N4148
SYMBOL cap 608 144 R0
SYMATTR InstName C3
SYMATTR Value 100nF
SYMBOL res 784 0 R90
WINDOW 0 -11 65 VBottom 2
WINDOW 3 32 56 VTop 2
SYMATTR InstName R3
SYMATTR Value 2.2k
SYMBOL Digital\\schmtinv 688 48 R0
SYMATTR InstName A3
SYMBOL Misc\\xtal 912 -112 R0
SYMATTR InstName X1
SYMATTR Value PS1720P02
SYMATTR Prefix X
TEXT 984 -80 Left 2 !.lib C:\\Users\\matta\\OneDrive\\Uni\\QUT\\Y3S1\\EGB240\\TwoToneBuzzer\\buzzer.asc
TEXT 80 296 Left 2 !.tran 0 3 1 uic
TEXT 984 8 Left 2 !.include PS1720p02.sub
