Version 4
SHEET 1 1956 680
WIRE 576 -272 512 -272
WIRE 928 -272 656 -272
WIRE 96 -240 16 -240
WIRE 256 -240 176 -240
WIRE 448 -224 384 -224
WIRE 576 -176 512 -176
WIRE 928 -176 928 -272
WIRE 928 -176 656 -176
WIRE 928 -112 928 -176
WIRE 16 -80 16 -240
WIRE 112 -80 16 -80
WIRE 256 -80 256 -240
WIRE 256 -80 176 -80
WIRE 384 -80 384 -224
WIRE 384 -80 256 -80
WIRE 16 -16 16 -80
WIRE 688 16 624 16
WIRE 800 16 768 16
WIRE 16 80 16 48
WIRE 112 80 112 -64
WIRE 384 112 384 -80
WIRE 624 112 624 16
WIRE 624 112 384 112
WIRE 688 112 624 112
WIRE 800 112 800 16
WIRE 800 112 752 112
WIRE 928 112 928 -48
WIRE 928 112 800 112
WIRE 624 144 624 112
WIRE 688 208 688 128
FLAG 16 80 0
FLAG 112 80 0
FLAG 624 208 0
FLAG 688 208 0
SYMBOL cap 0 -16 R0
SYMATTR InstName C1
SYMATTR Value 100µF
SYMBOL Digital\\schmtinv 112 -144 R0
SYMATTR InstName A1
SYMBOL res 192 -256 R90
WINDOW 0 0 56 VBottom 2
WINDOW 3 32 56 VTop 2
SYMATTR InstName R1
SYMATTR Value 20k
SYMBOL cap 608 144 R0
SYMATTR InstName C3
SYMATTR Value 100nF
SYMBOL res 784 0 R90
WINDOW 0 -11 65 VBottom 2
WINDOW 3 32 56 VTop 2
SYMATTR InstName R3
SYMATTR Value 2.2k
SYMBOL Digital\\schmtinv 688 48 R0
SYMATTR InstName A3
SYMBOL Misc\\xtal 912 -112 R0
SYMATTR InstName X1
SYMATTR Value PS1720P02
SYMATTR Prefix X
SYMBOL npn 448 -272 R0
SYMATTR InstName Q1
SYMBOL res 672 -288 R90
WINDOW 0 0 56 VBottom 2
WINDOW 3 32 56 VTop 2
SYMATTR InstName 2k
SYMBOL res 672 -192 R90
WINDOW 0 0 56 VBottom 2
WINDOW 3 32 56 VTop 2
SYMATTR InstName R4
SYMATTR Value 2k
TEXT 984 -80 Left 2 !.lib C:\\Users\\matta\\OneDrive\\Uni\\QUT\\Y3S1\\EGB240\\TwoToneBuzzer\\buzzer.asc
TEXT 0 104 Left 2 !.tran 0 3 1 uic
TEXT 984 8 Left 2 !.include PS1720p02.sub
